powerflow/test/input.glm
//*********************************************
// BEGIN 
//*********************************************
// filename... 12EG-1.glm 

clock { 
	 timestamp '2000-01-01 0:00:00';
	 timezone EST+5EDT;
}

//*********************************************
// modules
module powerflow;


object triplex_line_conductor: {
	name 1/0 AA triplex;
	resistance 0.97;
	geometric_mean_radius 0.0111;
}

object triplex_line_configuration:1 {
	l1_conductor 1/0 AA triplex;
	l2_conductor 1/0 AA triplex;
	lN_conductor 1/0 AA triplex;
	insulation_thickness 0.08;
	diameter 0.368;
}

object transformer:116  {
	phases "B|N";
	from 181_76778;
	to 181_76778_CB_TX1;
	configuration transformer_configuration:64;
}

object triplex_node:117 {
	name 181_76778_CB_TX1;
	phases "B|N";
	line1_voltage 120;
	line2_voltage 120;
	lineN_voltage 0;
}

object meter:118 {
	name 181_76778_CB_TX1_M;
	phases "BN";
	type SINGLEPHASE;
	line1_voltage 120;
	line2_voltage 120;
	line3_voltage 0;
}

object triplex_line:119 {
	name 181_76778_CB_TXL;
	from 181_76778_CB_TX1;
	to 181_76778_CB_TX1_M;
	length 30;
	configuration triplex_line_configuration:1;
}

object triplex_node:120 {
	name 181_76778_CB_TX2;
	parent 181_76778_CB_TX1_M;
	latitude 51N32'55.352";
	longitude 113W50'58.401";
	phases "B|N";
	phaseB_VA 6435.22304524123+1906.93630401834j;
	line1_voltage 120;
	line2_voltage 120;
	lineN_voltage 0;
}

object transformer:121  {
	phases "A|N";
	from 181_4312;
	to 181_4312_CA_TX1;
	configuration transformer_configuration:51;
}

object triplex_node:122 {
	name 181_4312_CA_TX1;
	phases "A|N";
	line1_voltage 120;
	line2_voltage 120;
	lineN_voltage 0;
}

object meter:123 {
	name 181_4312_CA_TX1_M;
	phases "AN";
	type SINGLEPHASE;
	line1_voltage 120;
	line2_voltage 120;
	line3_voltage 0;
}

object triplex_line:124 {
	name 181_4312_CA_TXL;
	from 181_4312_CA_TX1;
	to 181_4312_CA_TX1_M;
	length 30;
	configuration triplex_line_configuration:1;
}

object triplex_node:125 {
	name 181_4312_CA_TX2;
	parent 181_4312_CA_TX1_M;
	latitude 51N33'13.363";
	longitude 113W51'41.310";
	phases "A|N";
	phaseA_VA 6156.22569516731+1836.75230329455j;
	line1_voltage 120;
	line2_voltage 120;
	lineN_voltage 0;
}

object transformer:126  {
	phases "A|N";
	from 181_4413;
	to 181_4413_CA_TX1;
	configuration transformer_configuration:52;
}

object triplex_node:127 {
	name 181_4413_CA_TX1;
	phases "A|N";
	line1_voltage 120;
	line2_voltage 120;
	lineN_voltage 0;
}

object meter:128 {
	name 181_4413_CA_TX1_M;
	phases "AN";
	type SINGLEPHASE;
	line1_voltage 120;
	line2_voltage 120;
	line3_voltage 0;
}

object triplex_line:129 {
	name 181_4413_CA_TXL;
	from 181_4413_CA_TX1;
	to 181_4413_CA_TX1_M;
	length 30;
	configuration triplex_line_configuration:1;
}

object triplex_node:130 {
	name 181_4413_CA_TX2;
	parent 181_4413_CA_TX1_M;
	latitude 51N33'5.422";
	longitude 113W51'36.817";
	phases "A|N";
	phaseA_VA 10260.3761586122+3061.25383882426j;
	line1_voltage 120;
	line2_voltage 120;
	lineN_voltage 0;
}

object transformer:131  {
	phases "B|N";
	from 181_148478;
	to 181_148478_IB_TX1;
	configuration transformer_configuration:65;
}

object triplex_node:132 {
	name 181_148478_IB_TX1;
	phases "B|N";
	line1_voltage 120;
	line2_voltage 120;
	lineN_voltage 0;
}

object meter:133 {
	name 181_148478_IB_TX1_M;
	phases "BN";
	type SINGLEPHASE;
	line1_voltage 120;
	line2_voltage 120;
	line3_voltage 0;
}

object triplex_line:134 {
	name 181_148478_IB_TXL;
	from 181_148478_IB_TX1;
	to 181_148478_IB_TX1_M;
	length 30;
	configuration triplex_line_configuration:1;
}

object triplex_node:135 {
	name 181_148478_IB_TX2;
	parent 181_148478_IB_TX1_M;
	latitude 51N33'2.712";
	longitude 113W51'12.119";
	phases "B|N";
	phaseB_VA 429.014869682749+127.129086934556j;
	line1_voltage 120;
	line2_voltage 120;
	lineN_voltage 0;
}

object transformer:136  {
	phases "B|N";
	from 181_21567;
	to 181_21567_CB_TX1;
	configuration transformer_configuration:66;
}

object triplex_node:137 {
	name 181_21567_CB_TX1;
	phases "B|N";
	line1_voltage 120;
	line2_voltage 120;
	lineN_voltage 0;
}

object meter:138 {
	name 181_21567_CB_TX1_M;
	phases "BN";
	type SINGLEPHASE;
	line1_voltage 120;
	line2_voltage 120;
	line3_voltage 0;
}

object triplex_line:139 {
	name 181_21567_CB_TXL;
	from 181_21567_CB_TX1;
	to 181_21567_CB_TX1_M;
	length 30;
	configuration triplex_line_configuration:1;
}

object triplex_node:140 {
	name 181_21567_CB_TX2;
	parent 181_21567_CB_TX1_M;
	latitude 51N33'0.507";
	longitude 113W51'4.447";
	phases "B|N";
	phaseB_VA 10725.3717420687+3178.22717336391j;
	line1_voltage 120;
	line2_voltage 120;
	lineN_voltage 0;
}

object transformer:141  {
	phases "A|N";
	from 181_21580;
	to 181_21580_CA_TX1;
	configuration transformer_configuration:51;
}

object triplex_node:142 {
	name 181_21580_CA_TX1;
	phases "A|N";
	line1_voltage 120;
	line2_voltage 120;
	lineN_voltage 0;
}

object meter:143 {
	name 181_21580_CA_TX1_M;
	phases "AN";
	type SINGLEPHASE;
	line1_voltage 120;
	line2_voltage 120;
	line3_voltage 0;
}

object triplex_line:144 {
	name 181_21580_CA_TXL;
	from 181_21580_CA_TX1;
	to 181_21580_CA_TX1_M;
	length 30;
	configuration triplex_line_configuration:1;
}

object triplex_node:145 {
	name 181_21580_CA_TX2;
	parent 181_21580_CA_TX1_M;
	latitude 51N32'57.655";
	longitude 113W51'32.679";
	phases "A|N";
	phaseA_VA 6156.22569516731+1836.75230329455j;
	line1_voltage 120;
	line2_voltage 120;
	lineN_voltage 0;
}

object transformer:146  {
	phases "A|N";
	from 181_4516;
	to 181_4516_CA_TX1;
	configuration transformer_configuration:51;
}

object triplex_node:147 {
	name 181_4516_CA_TX1;
	phases "A|N";
	line1_voltage 120;
	line2_voltage 120;
	lineN_voltage 0;
}

object meter:148 {
	name 181_4516_CA_TX1_M;
	phases "AN";
	type SINGLEPHASE;
	line1_voltage 120;
	line2_voltage 120;
	line3_voltage 0;
}

object triplex_line:149 {
	name 181_4516_CA_TXL;
	from 181_4516_CA_TX1;
	to 181_4516_CA_TX1_M;
	length 30;
	configuration triplex_line_configuration:1;
}

object triplex_node:150 {
	name 181_4516_CA_TX2;
	parent 181_4516_CA_TX1_M;
	latitude 51N32'52.077";
	longitude 113W51'33.177";
	phases "A|N";
	phaseA_VA 6156.22569516731+1836.75230329455j;
	line1_voltage 120;
	line2_voltage 120;
	lineN_voltage 0;
}

object transformer:151  {
	phases "B|N";
	from 181_4546;
	to 181_4546_CB_TX1;
	configuration transformer_configuration:67;
}

object triplex_node:152 {
	name 181_4546_CB_TX1;
	phases "B|N";
	line1_voltage 120;
	line2_voltage 120;
	lineN_voltage 0;
}

object meter:153 {
	name 181_4546_CB_TX1_M;
	phases "BN";
	type SINGLEPHASE;
	line1_voltage 120;
	line2_voltage 120;
	line3_voltage 0;
}

object triplex_line:154 {
	name 181_4546_CB_TXL;
	from 181_4546_CB_TX1;
	to 181_4546_CB_TX1_M;
	length 30;
	configuration triplex_line_configuration:1;
}

object triplex_node:155 {
	name 181_4546_CB_TX2;
	parent 181_4546_CB_TX1_M;
	latitude 51N32'48.958";
	longitude 113W50'56.835";
	phases "B|N";
	phaseB_VA 4290.14869682749+1271.29086934556j;
	line1_voltage 120;
	line2_voltage 120;
	lineN_voltage 0;
}

object transformer:156  {
	phases "A|B|C|N";
	from 181_4551;
	to 181_4551_C_M;
	configuration transformer_configuration:98;
}

object meter:157 {
	name 181_4551_C_M;
	type POLYPHASE;
	phases "ABCN";
	nominal_voltage 240;
	line1_voltage 7199.558+0.0j;
	line2_voltage -3599.779-6235.000j;
	line3_voltage -3599.779+6235.000j;
}
object transformer:158  {
	phases "A|B|C|N";
	from 181_4586;
	to 181_4586_C_M;
	configuration transformer_configuration:99;
}

object meter:159 {
	name 181_4586_C_M;
	type POLYPHASE;
	phases "ABCN";
	nominal_voltage 240;
	line1_voltage 7199.558+0.0j;
	line2_voltage -3599.779-6235.000j;
	line3_voltage -3599.779+6235.000j;
}
object transformer:160  {
	phases "A|N";
	from 181_4621;
	to 181_4621_CA_TX1;
	configuration transformer_configuration:51;
}

object triplex_node:161 {
	name 181_4621_CA_TX1;
	phases "A|N";
	line1_voltage 120;
	line2_voltage 120;
	lineN_voltage 0;
}

object meter:162 {
	name 181_4621_CA_TX1_M;
	phases "AN";
	type SINGLEPHASE;
	line1_voltage 120;
	line2_voltage 120;
	line3_voltage 0;
}

object triplex_line:163 {
	name 181_4621_CA_TXL;
	from 181_4621_CA_TX1;
	to 181_4621_CA_TX1_M;
	length 30;
	configuration triplex_line_configuration:1;
}

object triplex_node:164 {
	name 181_4621_CA_TX2;
	parent 181_4621_CA_TX1_M;
	latitude 51N32'39.518";
	longitude 113W51'3.080";
	phases "A|N";
	phaseA_VA 6156.22569516731+1836.75230329455j;
	line1_voltage 120;
	line2_voltage 120;
	lineN_voltage 0;
}

object transformer:165  {
	phases "A|B|C|N";
	from 181_4622;
	to 181_4622_C_M;
	configuration transformer_configuration:99;
}

object meter:166 {
	name 181_4622_C_M;
	type POLYPHASE;
	phases "ABCN";
	nominal_voltage 240;
	line1_voltage 7199.558+0.0j;
	line2_voltage -3599.779-6235.000j;
	line3_voltage -3599.779+6235.000j;
}
object transformer:167  {
	phases "A|N";
	from 181_21630;
	to 181_21630_CA_TX1;
	configuration transformer_configuration:54;
}

object triplex_node:168 {
	name 181_21630_CA_TX1;
	phases "A|N";
	line1_voltage 120;
	line2_voltage 120;
	lineN_voltage 0;
}

object meter:169 {
	name 181_21630_CA_TX1_M;
	phases "AN";
	type SINGLEPHASE;
	line1_voltage 120;
	line2_voltage 120;
	line3_voltage 0;
}

object triplex_line:170 {
	name 181_21630_CA_TXL;
	from 181_21630_CA_TX1;
	to 181_21630_CA_TX1_M;
	length 30;
	configuration triplex_line_configuration:1;
}

object triplex_node:171 {
	name 181_21630_CA_TX2;
	parent 181_21630_CA_TX1_M;
	latitude 51N32'38.770";
	longitude 113W51'9.331";
	phases "A|N";
	phaseA_VA 2052.07523172243+612.250767764851j;
	line1_voltage 120;
	line2_voltage 120;
	lineN_voltage 0;
}

object transformer:172  {
	phases "A|B|C|N";
	from 181_4633;
	to 181_4633_C_M;
	configuration transformer_configuration:101;
}

object meter:173 {
	name 181_4633_C_M;
	type POLYPHASE;
	phases "ABCN";
	nominal_voltage 240;
	line1_voltage 7199.558+0.0j;
	line2_voltage -3599.779-6235.000j;
	line3_voltage -3599.779+6235.000j;
}
object transformer:174  {
	phases "A|B|C|N";
	from 181_4645;
	to 181_4645_C_M;
	configuration transformer_configuration:102;
}

object meter:175 {
	name 181_4645_C_M;
	type POLYPHASE;
	phases "ABCN";
	nominal_voltage 240;
	line1_voltage 7199.558+0.0j;
	line2_voltage -3599.779-6235.000j;
	line3_voltage -3599.779+6235.000j;
}
object transformer:176  {
	phases "B|N";
	from 181_4646;
	to 181_4646_CB_TX1;
	configuration transformer_configuration:64;
}

object triplex_node:177 {
	name 181_4646_CB_TX1;
	phases "B|N";
	line1_voltage 120;
	line2_voltage 120;
	lineN_voltage 0;
}

object meter:178 {
	name 181_4646_CB_TX1_M;
	phases "BN";
	type SINGLEPHASE;
	line1_voltage 120;
	line2_voltage 120;
	line3_voltage 0;
}

object triplex_line:179 {
	name 181_4646_CB_TXL;
	from 181_4646_CB_TX1;
	to 181_4646_CB_TX1_M;
	length 30;
	configuration triplex_line_configuration:1;
}

object triplex_node:180 {
	name 181_4646_CB_TX2;
	parent 181_4646_CB_TX1_M;
	latitude 51N32'36.647";
	longitude 113W51'3.073";
	phases "B|N";
	phaseB_VA 6435.22304524123+1906.93630401834j;
	line1_voltage 120;
	line2_voltage 120;
	lineN_voltage 0;
}

object transformer:181  {
	phases "A|B|C|N";
	from 181_4659;
	to 181_4659_C_M;
	configuration transformer_configuration:102;
}

object meter:182 {
	name 181_4659_C_M;
	type POLYPHASE;
	phases "ABCN";
	nominal_voltage 240;
	line1_voltage 7199.558+0.0j;
	line2_voltage -3599.779-6235.000j;
	line3_voltage -3599.779+6235.000j;
}
object transformer:183  {
	phases "A|B|C|N";
	from 181_4661;
	to 181_4661_C_M;
	configuration transformer_configuration:98;
}

object meter:184 {
	name 181_4661_C_M;
	type POLYPHASE;
	phases "ABCN";
	nominal_voltage 240;
	line1_voltage 7199.558+0.0j;
	line2_voltage -3599.779-6235.000j;
	line3_voltage -3599.779+6235.000j;
}
object transformer:185  {
	phases "A|B|C|N";
	from 181_4695;
	to 181_4695_C_M;
	configuration transformer_configuration:102;
}

object meter:186 {
	name 181_4695_C_M;
	type POLYPHASE;
	phases "ABCN";
	nominal_voltage 240;
	line1_voltage 7199.558+0.0j;
	line2_voltage -3599.779-6235.000j;
	line3_voltage -3599.779+6235.000j;
}
object transformer:187  {
	phases "A|B|C|N";
	from 181_4696;
	to 181_4696_C_M;
	configuration transformer_configuration:101;
}

object meter:188 {
	name 181_4696_C_M;
	type POLYPHASE;
	phases "ABCN";
	nominal_voltage 240;
	line1_voltage 7199.558+0.0j;
	line2_voltage -3599.779-6235.000j;
	line3_voltage -3599.779+6235.000j;
}
object transformer:189  {
	phases "B|N";
	from 181_4736;
	to 181_4736_CB_TX1;
	configuration transformer_configuration:64;
}

object triplex_node:190 {
	name 181_4736_CB_TX1;
	phases "B|N";
	line1_voltage 120;
	line2_voltage 120;
	lineN_voltage 0;
}

object meter:191 {
	name 181_4736_CB_TX1_M;
	phases "BN";
	type SINGLEPHASE;
	line1_voltage 120;
	line2_voltage 120;
	line3_voltage 0;
}

object triplex_line:192 {
	name 181_4736_CB_TXL;
	from 181_4736_CB_TX1;
	to 181_4736_CB_TX1_M;
	length 30;
	configuration triplex_line_configuration:1;
}

object triplex_node:193 {
	name 181_4736_CB_TX2;
	parent 181_4736_CB_TX1_M;
	latitude 51N32'27.419";
	longitude 113W51'18.625";
	phases "B|N";
	phaseB_VA 6435.22304524123+1906.93630401834j;
	line1_voltage 120;
	line2_voltage 120;
	lineN_voltage 0;
}

object transformer:194  {
	phases "A|B|C|N";
	from 181_73247;
	to 181_73247_C_M;
	configuration transformer_configuration:105;
}

object meter:195 {
	name 181_73247_C_M;
	type POLYPHASE;
	phases "ABCN";
	nominal_voltage 240;
	line1_voltage 7199.558+0.0j;
	line2_voltage -3599.779-6235.000j;
	line3_voltage -3599.779+6235.000j;
}
object transformer:196  {
	phases "A|B|C|N";
	from 181_75803;
	to 181_75803_C_M;
	configuration transformer_configuration:106;
}

object meter:197 {
	name 181_75803_C_M;
	type POLYPHASE;
	phases "ABCN";
	nominal_voltage 240;
	line1_voltage 7199.558+0.0j;
	line2_voltage -3599.779-6235.000j;
	line3_voltage -3599.779+6235.000j;
}
object transformer:198  {
	phases "A|N";
	from 181_76777;
	to 181_76777_CA_TX1;
	configuration transformer_configuration:58;
}

object triplex_node:199 {
	name 181_76777_CA_TX1;
	phases "A|N";
	line1_voltage 120;
	line2_voltage 120;
	lineN_voltage 0;
}

object meter:200 {
	name 181_76777_CA_TX1_M;
	phases "AN";
	type SINGLEPHASE;
	line1_voltage 120;
	line2_voltage 120;
	line3_voltage 0;
}

object triplex_line:201 {
	name 181_76777_CA_TXL;
	from 181_76777_CA_TX1;
	to 181_76777_CA_TX1_M;
	length 30;
	configuration triplex_line_configuration:1;
}

object triplex_node:202 {
	name 181_76777_CA_TX2;
	parent 181_76777_CA_TX1_M;
	latitude 51N33'18.987";
	longitude 113W51'23.186";
	phases "A|N";
	phaseA_VA 10260.3761586122+3061.25383882426j;
	line1_voltage 120;
	line2_voltage 120;
	lineN_voltage 0;
}

object transformer:203  {
	phases "A|B|C|N";
	from 181_26659;
	to 181_26659_C_M;
	configuration transformer_configuration:108;
}

object meter:204 {
	name 181_26659_C_M;
	type POLYPHASE;
	phases "ABCN";
	nominal_voltage 240;
	line1_voltage 7199.558+0.0j;
	line2_voltage -3599.779-6235.000j;
	line3_voltage -3599.779+6235.000j;
}
object transformer:205  {
	phases "A|B|C|N";
	from 181_26721;
	to 181_26721_C_M;
	configuration transformer_configuration:109;
}

object meter:206 {
	name 181_26721_C_M;
	type POLYPHASE;
	phases "ABCN";
	nominal_voltage 240;
	line1_voltage 7199.558+0.0j;
	line2_voltage -3599.779-6235.000j;
	line3_voltage -3599.779+6235.000j;
}
object transformer:207  {
	phases "A|B|C|N";
	from 181_104923;
	to 181_104923_I_M;
	configuration transformer_configuration:108;
}

object meter:208 {
	name 181_104923_I_M;
	type POLYPHASE;
	phases "ABCN";
	nominal_voltage 240;
	line1_voltage 7199.558+0.0j;
	line2_voltage -3599.779-6235.000j;
	line3_voltage -3599.779+6235.000j;
}
object transformer:209  {
	phases "A|N";
	from 181_132780;
	to 181_132780_CA_TX1;
	configuration transformer_configuration:58;
}

object triplex_node:210 {
	name 181_132780_CA_TX1;
	phases "A|N";
	line1_voltage 120;
	line2_voltage 120;
	lineN_voltage 0;
}

object meter:211 {
	name 181_132780_CA_TX1_M;
	phases "AN";
	type SINGLEPHASE;
	line1_voltage 120;
	line2_voltage 120;
	line3_voltage 0;
}

object triplex_line:212 {
	name 181_132780_CA_TXL;
	from 181_132780_CA_TX1;
	to 181_132780_CA_TX1_M;
	length 30;
	configuration triplex_line_configuration:1;
}

object triplex_node:213 {
	name 181_132780_CA_TX2;
	parent 181_132780_CA_TX1_M;
	latitude 51N33'19.279";
	longitude 113W51'29.731";
	phases "A|N";
	phaseA_VA 10260.3761586122+3061.25383882426j;
	line1_voltage 120;
	line2_voltage 120;
	lineN_voltage 0;
}

object transformer:214  {
	phases "A|B|C|N";
	from 181_16240;
	to 181_16240_C_M;
	configuration transformer_configuration:110;
}

object meter:215 {
	name 181_16240_C_M;
	type POLYPHASE;
	phases "ABCN";
	nominal_voltage 240;
	line1_voltage 7199.558+0.0j;
	line2_voltage -3599.779-6235.000j;
	line3_voltage -3599.779+6235.000j;
}
object transformer:216  {
	phases "A|B|C|N";
	from 181_16223;
	to 181_16223_C_M;
	configuration transformer_configuration:110;
}

object meter:217 {
	name 181_16223_C_M;
	type POLYPHASE;
	phases "ABCN";
	nominal_voltage 240;
	line1_voltage 7199.558+0.0j;
	line2_voltage -3599.779-6235.000j;
	line3_voltage -3599.779+6235.000j;
}
object transformer:218  {
	phases "A|N";
	from 181_16249;
	to 181_16249_CA_TX1;
	configuration transformer_configuration:58;
}

object triplex_node:219 {
	name 181_16249_CA_TX1;
	phases "A|N";
	line1_voltage 120;
	line2_voltage 120;
	lineN_voltage 0;
}

object meter:220 {
	name 181_16249_CA_TX1_M;
	phases "AN";
	type SINGLEPHASE;
	line1_voltage 120;
	line2_voltage 120;
	line3_voltage 0;
}

object triplex_line:221 {
	name 181_16249_CA_TXL;
	from 181_16249_CA_TX1;
	to 181_16249_CA_TX1_M;
	length 30;
	configuration triplex_line_configuration:1;
}

object triplex_node:222 {
	name 181_16249_CA_TX2;
	parent 181_16249_CA_TX1_M;
	latitude 51N33'41.292";
	longitude 113W51'6.462";
	phases "A|N";
	phaseA_VA 10260.3761586122+3061.25383882426j;
	line1_voltage 120;
	line2_voltage 120;
	lineN_voltage 0;
}

object transformer:223  {
	phases "A|B|C|N";
	from 181_16300;
	to 181_16300_C_M;
	configuration transformer_configuration:106;
}

object meter:224 {
	name 181_16300_C_M;
	type POLYPHASE;
	phases "ABCN";
	nominal_voltage 240;
	line1_voltage 7199.558+0.0j;
	line2_voltage -3599.779-6235.000j;
	line3_voltage -3599.779+6235.000j;
}
object transformer:225  {
	phases "A|B|C|N";
	from 181_16329;
	to 181_16329_C_M;
	configuration transformer_configuration:110;
}

object meter:226 {
	name 181_16329_C_M;
	type POLYPHASE;
	phases "ABCN";
	nominal_voltage 240;
	line1_voltage 7199.558+0.0j;
	line2_voltage -3599.779-6235.000j;
	line3_voltage -3599.779+6235.000j;
}
object transformer:227  {
	phases "B|N";
	from 181_16335;
	to 181_16335_CB_TX1;
	configuration transformer_configuration:74;
}

object triplex_node:228 {
	name 181_16335_CB_TX1;
	phases "B|N";
	line1_voltage 120;
	line2_voltage 120;
	lineN_voltage 0;
}

object meter:229 {
	name 181_16335_CB_TX1_M;
	phases "BN";
	type SINGLEPHASE;
	line1_voltage 120;
	line2_voltage 120;
	line3_voltage 0;
}

object triplex_line:230 {
	name 181_16335_CB_TXL;
	from 181_16335_CB_TX1;
	to 181_16335_CB_TX1_M;
	length 30;
	configuration triplex_line_configuration:1;
}

object triplex_node:231 {
	name 181_16335_CB_TX2;
	parent 181_16335_CB_TX1_M;
	latitude 51N33'35.957";
	longitude 113W50'52.652";
	phases "B|N";
	phaseB_VA 10725.3717420687+3178.22717336391j;
	line1_voltage 120;
	line2_voltage 120;
	lineN_voltage 0;
}

object transformer:232  {
	phases "A|B|C|N";
	from 181_16348;
	to 181_16348_C_M;
	configuration transformer_configuration:106;
}

object meter:233 {
	name 181_16348_C_M;
	type POLYPHASE;
	phases "ABCN";
	nominal_voltage 240;
	line1_voltage 7199.558+0.0j;
	line2_voltage -3599.779-6235.000j;
	line3_voltage -3599.779+6235.000j;
}
object transformer:234  {
	phases "B|N";
	from 181_16371;
	to 181_16371_CB_TX1;
	configuration transformer_configuration:74;
}

object triplex_node:235 {
	name 181_16371_CB_TX1;
	phases "B|N";
	line1_voltage 120;
	line2_voltage 120;
	lineN_voltage 0;
}

object meter:236 {
	name 181_16371_CB_TX1_M;
	phases "BN";
	type SINGLEPHASE;
	line1_voltage 120;
	line2_voltage 120;
	line3_voltage 0;
}

object triplex_line:237 {
	name 181_16371_CB_TXL;
	from 181_16371_CB_TX1;
	to 181_16371_CB_TX1_M;
	length 30;
	configuration triplex_line_configuration:1;
}

object triplex_node:238 {
	name 181_16371_CB_TX2;
	parent 181_16371_CB_TX1_M;
	latitude 51N33'33.438";
	longitude 113W51'1.432";
	phases "B|N";
	phaseB_VA 10725.3717420687+3178.22717336391j;
	line1_voltage 120;
	line2_voltage 120;
	lineN_voltage 0;
}

object transformer:239  {
	phases "A|B|C|N";
	from 181_16499;
	to 181_16499_C_M;
	configuration transformer_configuration:106;
}

object meter:240 {
	name 181_16499_C_M;
	type POLYPHASE;
	phases "ABCN";
	nominal_voltage 240;
	line1_voltage 7199.558+0.0j;
	line2_voltage -3599.779-6235.000j;
	line3_voltage -3599.779+6235.000j;
}
object transformer:241  {
	phases "B|N";
	from 181_16605;
	to 181_16605_CB_TX1;
	configuration transformer_configuration:75;
}

object triplex_node:242 {
	name 181_16605_CB_TX1;
	phases "B|N";
	line1_voltage 120;
	line2_voltage 120;
	lineN_voltage 0;
}

object meter:243 {
	name 181_16605_CB_TX1_M;
	phases "BN";
	type SINGLEPHASE;
	line1_voltage 120;
	line2_voltage 120;
	line3_voltage 0;
}

object triplex_line:244 {
	name 181_16605_CB_TXL;
	from 181_16605_CB_TX1;
	to 181_16605_CB_TX1_M;
	length 30;
	configuration triplex_line_configuration:1;
}

object triplex_node:245 {
	name 181_16605_CB_TX2;
	parent 181_16605_CB_TX1_M;
	latitude 51N33'17.439";
	longitude 113W51'31.562";
	phases "B|N";
	phaseB_VA 4290.14869682749+1271.29086934556j;
	line1_voltage 120;
	line2_voltage 120;
	lineN_voltage 0;
}

object transformer:246  {
	phases "A|B|C|N";
	from 181_16624;
	to 181_16624_C_M;
	configuration transformer_configuration:105;
}

object meter:247 {
	name 181_16624_C_M;
	type POLYPHASE;
	phases "ABCN";
	nominal_voltage 240;
	line1_voltage 7199.558+0.0j;
	line2_voltage -3599.779-6235.000j;
	line3_voltage -3599.779+6235.000j;
}
object transformer:248  {
	phases "B|N";
	from 181_16702;
	to 181_16702_CB_TX1;
	configuration transformer_configuration:75;
}

object triplex_node:249 {
	name 181_16702_CB_TX1;
	phases "B|N";
	line1_voltage 120;
	line2_voltage 120;
	lineN_voltage 0;
}

object meter:250 {
	name 181_16702_CB_TX1_M;
	phases "BN";
	type SINGLEPHASE;
	line1_voltage 120;
	line2_voltage 120;
	line3_voltage 0;
}

object triplex_line:251 {
	name 181_16702_CB_TXL;
	from 181_16702_CB_TX1;
	to 181_16702_CB_TX1_M;
	length 30;
	configuration triplex_line_configuration:1;
}

object triplex_node:252 {
	name 181_16702_CB_TX2;
	parent 181_16702_CB_TX1_M;
	latitude 51N33'8.287";
	longitude 113W51'9.365";
	phases "B|N";
	phaseB_VA 4290.14869682749+1271.29086934556j;
	line1_voltage 120;
	line2_voltage 120;
	lineN_voltage 0;
}

object transformer:253  {
	phases "A|B|C|N";
	from 181_26597;
	to 181_26597_I_M;
	configuration transformer_configuration:113;
}

object meter:254 {
	name 181_26597_I_M;
	type POLYPHASE;
	phases "ABCN";
	nominal_voltage 240;
	line1_voltage 7199.558+0.0j;
	line2_voltage -3599.779-6235.000j;
	line3_voltage -3599.779+6235.000j;
}
object transformer:255  {
	phases "A|B|C|N";
	from 181_17019;
	to 181_17019_I_M;
	configuration transformer_configuration:105;
}

object meter:256 {
	name 181_17019_I_M;
	type POLYPHASE;
	phases "ABCN";
	nominal_voltage 240;
	line1_voltage 7199.558+0.0j;
	line2_voltage -3599.779-6235.000j;
	line3_voltage -3599.779+6235.000j;
}
object transformer:257  {
	phases "A|B|C|N";
	from 181_26643;
	to 181_26643_C_M;
	configuration transformer_configuration:108;
}

object meter:258 {
	name 181_26643_C_M;
	type POLYPHASE;
	phases "ABCN";
	nominal_voltage 240;
	line1_voltage 7199.558+0.0j;
	line2_voltage -3599.779-6235.000j;
	line3_voltage -3599.779+6235.000j;
}
object transformer:259  {
	phases "A|N";
	from 181_17142;
	to 181_17142_CA_TX1;
	configuration transformer_configuration:58;
}

object triplex_node:260 {
	name 181_17142_CA_TX1;
	phases "A|N";
	line1_voltage 120;
	line2_voltage 120;
	lineN_voltage 0;
}

object meter:261 {
	name 181_17142_CA_TX1_M;
	phases "AN";
	type SINGLEPHASE;
	line1_voltage 120;
	line2_voltage 120;
	line3_voltage 0;
}

object triplex_line:262 {
	name 181_17142_CA_TXL;
	from 181_17142_CA_TX1;
	to 181_17142_CA_TX1_M;
	length 30;
	configuration triplex_line_configuration:1;
}

object triplex_node:263 {
	name 181_17142_CA_TX2;
	parent 181_17142_CA_TX1_M;
	latitude 51N32'37.058";
	longitude 113W51'12.019";
	phases "A|N";
	phaseA_VA 10260.3761586122+3061.25383882426j;
	line1_voltage 120;
	line2_voltage 120;
	lineN_voltage 0;
}

object transformer:264  {
	phases "A|B|C|N";
	from 181_17187;
	to 181_17187_C_M;
	configuration transformer_configuration:106;
}

object meter:265 {
	name 181_17187_C_M;
	type POLYPHASE;
	phases "ABCN";
	nominal_voltage 240;
	line1_voltage 7199.558+0.0j;
	line2_voltage -3599.779-6235.000j;
	line3_voltage -3599.779+6235.000j;
}
object transformer:266  {
	phases "A|B|C|N";
	from 181_17191;
	to 181_17191_C_M;
	configuration transformer_configuration:105;
}

object meter:267 {
	name 181_17191_C_M;
	type POLYPHASE;
	phases "ABCN";
	nominal_voltage 240;
	line1_voltage 7199.558+0.0j;
	line2_voltage -3599.779-6235.000j;
	line3_voltage -3599.779+6235.000j;
}
object transformer:268  {
	phases "A|B|C|N";
	from 181_17194;
	to 181_17194_C_M;
	configuration transformer_configuration:110;
}

object meter:269 {
	name 181_17194_C_M;
	type POLYPHASE;
	phases "ABCN";
	nominal_voltage 240;
	line1_voltage 7199.558+0.0j;
	line2_voltage -3599.779-6235.000j;
	line3_voltage -3599.779+6235.000j;
}
object transformer:270  {
	phases "A|B|C|N";
	from 181_26685;
	to 181_26685_C_M;
	configuration transformer_configuration:106;
}

object meter:271 {
	name 181_26685_C_M;
	type POLYPHASE;
	phases "ABCN";
	nominal_voltage 240;
	line1_voltage 7199.558+0.0j;
	line2_voltage -3599.779-6235.000j;
	line3_voltage -3599.779+6235.000j;
}
object transformer:272  {
	phases "A|B|C|N";
	from 181_17209;
	to 181_17209_C_M;
	configuration transformer_configuration:105;
}

object meter:273 {
	name 181_17209_C_M;
	type POLYPHASE;
	phases "ABCN";
	nominal_voltage 240;
	line1_voltage 7199.558+0.0j;
	line2_voltage -3599.779-6235.000j;
	line3_voltage -3599.779+6235.000j;
}
object transformer:274  {
	phases "A|B|C|N";
	from 181_17222;
	to 181_17222_C_M;
	configuration transformer_configuration:113;
}

object meter:275 {
	name 181_17222_C_M;
	type POLYPHASE;
	phases "ABCN";
	nominal_voltage 240;
	line1_voltage 7199.558+0.0j;
	line2_voltage -3599.779-6235.000j;
	line3_voltage -3599.779+6235.000j;
}
object transformer:276  {
	phases "A|B|C|N";
	from 181_17286;
	to 181_17286_C_M;
	configuration transformer_configuration:113;
}

object meter:277 {
	name 181_17286_C_M;
	type POLYPHASE;
	phases "ABCN";
	nominal_voltage 240;
	line1_voltage 7199.558+0.0j;
	line2_voltage -3599.779-6235.000j;
	line3_voltage -3599.779+6235.000j;
}
object transformer:278  {
	phases "A|B|C|N";
	from 181_17323;
	to 181_17323_C_M;
	configuration transformer_configuration:114;
}

object meter:279 {
	name 181_17323_C_M;
	type POLYPHASE;
	phases "ABCN";
	nominal_voltage 240;
	line1_voltage 7199.558+0.0j;
	line2_voltage -3599.779-6235.000j;
	line3_voltage -3599.779+6235.000j;
}
object transformer:280  {
	phases "A|B|C|N";
	from 181_17324;
	to 181_17324_C_M;
	configuration transformer_configuration:114;
}

object meter:281 {
	name 181_17324_C_M;
	type POLYPHASE;
	phases "ABCN";
	nominal_voltage 240;
	line1_voltage 7199.558+0.0j;
	line2_voltage -3599.779-6235.000j;
	line3_voltage -3599.779+6235.000j;
}
object transformer:282  {
	phases "A|B|C|N";
	from 181_17331;
	to 181_17331_C_M;
	configuration transformer_configuration:110;
}

object meter:283 {
	name 181_17331_C_M;
	type POLYPHASE;
	phases "ABCN";
	nominal_voltage 240;
	line1_voltage 7199.558+0.0j;
	line2_voltage -3599.779-6235.000j;
	line3_voltage -3599.779+6235.000j;
}
object transformer:284  {
	phases "A|B|C|N";
	from 181_16622;
	to 181_16622_C_M;
	configuration transformer_configuration:115;
}

object meter:285 {
	name 181_16622_C_M;
	type POLYPHASE;
	phases "ABCN";
	nominal_voltage 240;
	line1_voltage 7199.558+0.0j;
	line2_voltage -3599.779-6235.000j;
	line3_voltage -3599.779+6235.000j;
}
object transformer:286  {
	phases "A|B|C|N";
	from 181_26710;
	to 181_26710_C_M;
	configuration transformer_configuration:113;
}

object meter:287 {
	name 181_26710_C_M;
	type POLYPHASE;
	phases "ABCN";
	nominal_voltage 240;
	line1_voltage 7199.558+0.0j;
	line2_voltage -3599.779-6235.000j;
	line3_voltage -3599.779+6235.000j;
}
object transformer:288  {
	phases "A|B|C|N";
	from 181_31356;
	to 181_31356_C_M;
	configuration transformer_configuration:110;
}

object meter:289 {
	name 181_31356_C_M;
	type POLYPHASE;
	phases "ABCN";
	nominal_voltage 240;
	line1_voltage 7199.558+0.0j;
	line2_voltage -3599.779-6235.000j;
	line3_voltage -3599.779+6235.000j;
}
object overhead_line_conductor:19 {
	name 123.3 AAAC;
	rating.summer.continuous 256.0 ;
	geometric_mean_radius 0.012 ft;
	resistance 0.18;
}

object overhead_line_conductor:35 {
	name 559.5 AAAC;
	rating.summer.continuous 663.0 ;
	geometric_mean_radius 0.0271 ft;
	resistance 0.045;
}

object overhead_line_conductor:14 {
	name 4 CW;
	rating.summer.continuous 180.0 ;
	geometric_mean_radius 0.0034 ft;
	resistance 0.286;
}

object overhead_line_conductor:11 {
	name 4 CU;
	rating.summer.continuous 149.0 ;
	geometric_mean_radius 0.244 ft;
	resistance 0.306;
}

object overhead_line_conductor:20 {
	name 1/0 AAAC;
	rating.summer.continuous 266.0 ;
	geometric_mean_radius 0.368 ft;
	resistance 1.94304;
}

object overhead_line_conductor:16 {
	name 2 CU;
	rating.summer.continuous 204.0 ;
	geometric_mean_radius 0.292 ft;
	resistance 1.5418;
}

object overhead_line_conductor:28 {
	name 312.8 AAAC;
	rating.summer.continuous 460.0 ;
	geometric_mean_radius 0.0202 ft;
	resistance 0.071;
}

object overhead_line_conductor:27 {
	name 336.4 AAC;
	rating.summer.continuous 443.0 ;
	geometric_mean_radius 0.666 ft;
	resistance 3.5165;
}

object underground_line_conductor:43 {
	name 1/0 AAC (Conc);
	rating.summer.continuous 142.0 ;
	outer_diameter 1.27;
	conductor_gmr 0.01142 ft;
	conductor_diameter 0.362;
	conductor_resistance 0.88704;
	neutral_gmr 0.0489686771417213 ft;
	neutral_resistance 13.86528;
	neutral_diameter 0.0641;
	neutral_strands 16.0;
	shield_gmr 0.00;
	shield_resistance 0.00;
}

object underground_line_conductor:42 {
	name 2 AL (Conc);
	rating.summer.continuous 112.0 ;
	outer_diameter 1.09;
	conductor_gmr 0.0088 ft;
	conductor_diameter 0.292;
	conductor_resistance 1.38336;
	neutral_gmr 0.0348162687755351 ft;
	neutral_resistance 13.5696;
	neutral_diameter 0.0641;
	neutral_strands 6.0;
	shield_gmr 0.00;
	shield_resistance 0.00;
}

object underground_line_conductor:44 {
	name 4/0 AAC (Conc);
	rating.summer.continuous 214.0 ;
	outer_diameter 1.32;
	conductor_gmr 0.0177 ft;
	conductor_diameter 0.528;
	conductor_resistance 0.433488;
	neutral_gmr 0.0485380344339232 ft;
	neutral_resistance 13.5696;
	neutral_diameter 0.0641;
	neutral_strands 11.0;
	shield_gmr 0.00;
	shield_resistance 0.00;
}

object underground_line_conductor:49 {
	name 1000 AAC (Tape);
	rating.summer.continuous 775.0 ;
	outer_diameter 1.87;
	conductor_gmr 0.0371 ft;
	conductor_diameter 1.15;
	conductor_resistance 0.0222;
	neutral_gmr 0.0732739718442675 ft;
	neutral_resistance 0.05;
	neutral_diameter 0.102;
	neutral_strands 20.0;
	shield_gmr 0.00;
	shield_resistance 0.00;
}

object overhead_line_conductor:33 {
	name 556.5 AAC;
	rating.summer.continuous 605.0 ;
	geometric_mean_radius 0.865 ft;
	resistance 4.5672;
}

object overhead_line_conductor:32 {
	name Busbar;
	rating.summer.continuous 600.0 ;
	geometric_mean_radius 0.2441 ft;
	resistance 0.3059;
}

object line_spacing:610 {
	distance_BtoN 36.0 in;
}

object line_spacing:612 {
	distance_AtoB 48.0 in;
	distance_BtoC 48.0 in;
	distance_AtoC 48.0 in;
	distance_AtoN 36.0 in;
	distance_BtoN 36.0 in;
	distance_CtoN 36.0 in;
}

object line_spacing:615 {
	distance_AtoN 36.0 in;
}

object line_spacing:620 {
	distance_AtoB 48.0 in;
	distance_AtoN 36.0 in;
	distance_BtoN 36.0 in;
}

object line_spacing:626 {
	distance_CtoN 36.0 in;
}

object line_configuration:611 {
	phaseB_conductor overhead_line_conductor:19;
	phaseN_conductor overhead_line_conductor:19;
	line_spacing line_spacing:610;
}

object line_configuration:613 {
	phaseA_conductor overhead_line_conductor:35;
	phaseB_conductor overhead_line_conductor:35;
	phaseC_conductor overhead_line_conductor:35;
	phaseN_conductor overhead_line_conductor:35;
	line_spacing line_spacing:612;
}

object line_configuration:614 {
	phaseA_conductor overhead_line_conductor:19;
	phaseB_conductor overhead_line_conductor:19;
	phaseC_conductor overhead_line_conductor:19;
	phaseN_conductor overhead_line_conductor:19;
	line_spacing line_spacing:612;
}

object line_configuration:616 {
	phaseA_conductor overhead_line_conductor:19;
	phaseN_conductor overhead_line_conductor:19;
	line_spacing line_spacing:615;
}

object line_configuration:617 {
	phaseB_conductor overhead_line_conductor:14;
	phaseN_conductor overhead_line_conductor:14;
	line_spacing line_spacing:610;
}

object line_configuration:618 {
	phaseB_conductor overhead_line_conductor:11;
	phaseN_conductor overhead_line_conductor:11;
	line_spacing line_spacing:610;
}

object line_configuration:619 {
	phaseA_conductor overhead_line_conductor:35;
	phaseN_conductor overhead_line_conductor:35;
	line_spacing line_spacing:615;
}

object line_configuration:621 {
	phaseA_conductor overhead_line_conductor:35;
	phaseB_conductor overhead_line_conductor:35;
	phaseN_conductor overhead_line_conductor:35;
	line_spacing line_spacing:620;
}

object line_configuration:622 {
	phaseA_conductor overhead_line_conductor:35;
	phaseN_conductor overhead_line_conductor:35;
	line_spacing line_spacing:615;
}

object line_configuration:623 {
	phaseA_conductor overhead_line_conductor:11;
	phaseB_conductor overhead_line_conductor:11;
	phaseC_conductor overhead_line_conductor:11;
	phaseN_conductor overhead_line_conductor:11;
	line_spacing line_spacing:612;
}

object line_configuration:624 {
	phaseB_conductor overhead_line_conductor:20;
	phaseN_conductor overhead_line_conductor:20;
	line_spacing line_spacing:610;
}

object line_configuration:625 {
	phaseA_conductor overhead_line_conductor:35;
	phaseB_conductor overhead_line_conductor:35;
	phaseC_conductor overhead_line_conductor:35;
	phaseN_conductor overhead_line_conductor:35;
	line_spacing line_spacing:612;
}

object line_configuration:627 {
	phaseC_conductor overhead_line_conductor:16;
	phaseN_conductor overhead_line_conductor:16;
	line_spacing line_spacing:626;
}

object line_configuration:628 {
	phaseA_conductor overhead_line_conductor:20;
	phaseB_conductor overhead_line_conductor:20;
	phaseC_conductor overhead_line_conductor:20;
	phaseN_conductor overhead_line_conductor:20;
	line_spacing line_spacing:612;
}

object line_configuration:629 {
	phaseA_conductor overhead_line_conductor:28;
	phaseB_conductor overhead_line_conductor:28;
	phaseC_conductor overhead_line_conductor:28;
	phaseN_conductor overhead_line_conductor:28;
	line_spacing line_spacing:612;
}

object line_configuration:630 {
	phaseA_conductor overhead_line_conductor:27;
	phaseB_conductor overhead_line_conductor:27;
	phaseC_conductor overhead_line_conductor:27;
	phaseN_conductor overhead_line_conductor:27;
	line_spacing line_spacing:612;
}

object line_configuration:631 {
	phaseA_conductor overhead_line_conductor:35;
	phaseB_conductor overhead_line_conductor:35;
	phaseC_conductor overhead_line_conductor:35;
	phaseN_conductor overhead_line_conductor:35;
	line_spacing line_spacing:612;
}

object line_configuration:632 {
	phaseC_conductor underground_line_conductor:43;
	phaseN_conductor underground_line_conductor:43;
	line_spacing line_spacing:626;
}

object line_configuration:633 {
	phaseA_conductor underground_line_conductor:43;
	phaseB_conductor underground_line_conductor:43;
	phaseC_conductor underground_line_conductor:43;
	phaseN_conductor underground_line_conductor:43;
	line_spacing line_spacing:612;
}

object line_configuration:634 {
	phaseA_conductor underground_line_conductor:43;
	phaseN_conductor underground_line_conductor:43;
	line_spacing line_spacing:615;
}

object line_configuration:635 {
	phaseA_conductor underground_line_conductor:42;
	phaseB_conductor underground_line_conductor:42;
	phaseC_conductor underground_line_conductor:42;
	phaseN_conductor underground_line_conductor:42;
	line_spacing line_spacing:612;
}

object line_configuration:636 {
	phaseA_conductor underground_line_conductor:44;
	phaseB_conductor underground_line_conductor:44;
	phaseC_conductor underground_line_conductor:44;
	phaseN_conductor underground_line_conductor:44;
	line_spacing line_spacing:612;
}

object line_configuration:637 {
	phaseA_conductor underground_line_conductor:49;
	phaseB_conductor underground_line_conductor:49;
	phaseC_conductor underground_line_conductor:49;
	phaseN_conductor underground_line_conductor:49;
	line_spacing line_spacing:612;
}

object line_configuration:638 {
	phaseB_conductor underground_line_conductor:43;
	phaseN_conductor underground_line_conductor:43;
	line_spacing line_spacing:610;
}

object line_configuration:639 {
	phaseC_conductor underground_line_conductor:42;
	phaseN_conductor underground_line_conductor:42;
	line_spacing line_spacing:626;
}

object line_configuration:640 {
	phaseA_conductor overhead_line_conductor:33;
	phaseB_conductor overhead_line_conductor:33;
	phaseC_conductor overhead_line_conductor:33;
	phaseN_conductor overhead_line_conductor:33;
	line_spacing line_spacing:612;
}

object line_configuration:641 {
	phaseB_conductor overhead_line_conductor:33;
	phaseN_conductor overhead_line_conductor:33;
	line_spacing line_spacing:610;
}

object transformer_configuration:51 {
	connect_type SINGLE_PHASE_CENTER_TAPPED;
	install_type POLETOP;
	primary_voltage 7199.6 V;
	secondary_voltage 120 V;
	kVA_rating 15;
	phaseA_rating 15;
	resistance 0.01;
	reactance 0.00666666666666667;
}

object transformer_configuration:52 {
	connect_type SINGLE_PHASE_CENTER_TAPPED;
	install_type POLETOP;
	primary_voltage 7199.6 V;
	secondary_voltage 120 V;
	kVA_rating 25;
	phaseA_rating 25;
	resistance 0.006;
	reactance 0.004;
}

object transformer_configuration:53 {
	connect_type SINGLE_PHASE_CENTER_TAPPED;
	install_type POLETOP;
	primary_voltage 7199.6 V;
	secondary_voltage 120 V;
	kVA_rating 20;
	phaseA_rating 20;
	resistance 0.0075;
	reactance 0.005;
}

object transformer_configuration:54 {
	connect_type SINGLE_PHASE_CENTER_TAPPED;
	install_type POLETOP;
	primary_voltage 7199.6 V;
	secondary_voltage 120 V;
	kVA_rating 5;
	phaseA_rating 5;
	resistance 0.015;
	reactance 0.01;
}

object transformer_configuration:55 {
	connect_type SINGLE_PHASE_CENTER_TAPPED;
	install_type POLETOP;
	primary_voltage 7199.6 V;
	secondary_voltage 120 V;
	kVA_rating 50;
	phaseA_rating 50;
	resistance 0.003;
	reactance 0.002;
}

object transformer_configuration:56 {
	connect_type SINGLE_PHASE_CENTER_TAPPED;
	install_type PADMOUNT;
	primary_voltage 7199.6 V;
	secondary_voltage 120 V;
	kVA_rating 15;
	phaseA_rating 15;
	resistance 0.01;
	reactance 0.00666666666666667;
}

object transformer_configuration:57 {
	connect_type SINGLE_PHASE_CENTER_TAPPED;
	install_type PADMOUNT;
	primary_voltage 7199.6 V;
	secondary_voltage 120 V;
	kVA_rating 50;
	phaseA_rating 50;
	resistance 0.003;
	reactance 0.002;
}

object transformer_configuration:58 {
	connect_type SINGLE_PHASE_CENTER_TAPPED;
	install_type PADMOUNT;
	primary_voltage 7199.6 V;
	secondary_voltage 120 V;
	kVA_rating 25;
	phaseA_rating 25;
	resistance 0.006;
	reactance 0.004;
}

object transformer_configuration:59 {
	connect_type SINGLE_PHASE_CENTER_TAPPED;
	install_type PADMOUNT;
	primary_voltage 7199.6 V;
	secondary_voltage 120 V;
	kVA_rating 100;
	phaseA_rating 100;
	resistance 0.0015;
	reactance 0.001;
}

object transformer_configuration:60 {
	connect_type SINGLE_PHASE_CENTER_TAPPED;
	install_type PADMOUNT;
	primary_voltage 7199.6 V;
	secondary_voltage 120 V;
	kVA_rating 333;
	phaseA_rating 333;
	resistance 0.00045045045045045;
	reactance 0.0003003003003003;
}

object transformer_configuration:61 {
	connect_type SINGLE_PHASE_CENTER_TAPPED;
	install_type PADMOUNT;
	primary_voltage 7199.6 V;
	secondary_voltage 120 V;
	kVA_rating 166.666666666667;
	phaseA_rating 166.666666666667;
	resistance 0.000899999999999998;
	reactance 0.000599999999999999;
}

object transformer_configuration:62 {
	connect_type SINGLE_PHASE_CENTER_TAPPED;
	install_type PADMOUNT;
	primary_voltage 7199.6 V;
	secondary_voltage 120 V;
	kVA_rating 500;
	phaseA_rating 500;
	resistance 0.0003;
	reactance 0.0002;
}

object transformer_configuration:63 {
	connect_type SINGLE_PHASE_CENTER_TAPPED;
	install_type PADMOUNT;
	primary_voltage 7199.6 V;
	secondary_voltage 120 V;
	kVA_rating 250;
	phaseA_rating 250;
	resistance 0.0006;
	reactance 0.0004;
}

object transformer_configuration:64 {
	connect_type SINGLE_PHASE_CENTER_TAPPED;
	install_type POLETOP;
	primary_voltage 7199.6 V;
	secondary_voltage 120 V;
	kVA_rating 15;
	phaseB_rating 15;
	resistance 0.01;
	reactance 0.00666666666666667;
}

object transformer_configuration:65 {
	connect_type SINGLE_PHASE_CENTER_TAPPED;
	install_type POLETOP;
	primary_voltage 7199.6 V;
	secondary_voltage 120 V;
	kVA_rating 1;
	phaseB_rating 1;
	resistance 0.015;
	reactance 0.01;
}

object transformer_configuration:66 {
	connect_type SINGLE_PHASE_CENTER_TAPPED;
	install_type POLETOP;
	primary_voltage 7199.6 V;
	secondary_voltage 120 V;
	kVA_rating 25;
	phaseB_rating 25;
	resistance 0.006;
	reactance 0.004;
}

object transformer_configuration:67 {
	connect_type SINGLE_PHASE_CENTER_TAPPED;
	install_type POLETOP;
	primary_voltage 7199.6 V;
	secondary_voltage 120 V;
	kVA_rating 10;
	phaseB_rating 10;
	resistance 0.015;
	reactance 0.01;
}

object transformer_configuration:68 {
	connect_type SINGLE_PHASE_CENTER_TAPPED;
	install_type POLETOP;
	primary_voltage 7199.6 V;
	secondary_voltage 120 V;
	kVA_rating 20;
	phaseB_rating 20;
	resistance 0.0075;
	reactance 0.005;
}

object transformer_configuration:69 {
	connect_type SINGLE_PHASE_CENTER_TAPPED;
	install_type POLETOP;
	primary_voltage 7199.6 V;
	secondary_voltage 120 V;
	kVA_rating 50;
	phaseB_rating 50;
	resistance 0.003;
	reactance 0.002;
}

object transformer_configuration:70 {
	connect_type SINGLE_PHASE_CENTER_TAPPED;
	install_type PADMOUNT;
	primary_voltage 7199.6 V;
	secondary_voltage 120 V;
	kVA_rating 15;
	phaseB_rating 15;
	resistance 0.01;
	reactance 0.00666666666666667;
}

object transformer_configuration:71 {
	connect_type SINGLE_PHASE_CENTER_TAPPED;
	install_type PADMOUNT;
	primary_voltage 7199.6 V;
	secondary_voltage 120 V;
	kVA_rating 50;
	phaseB_rating 50;
	resistance 0.003;
	reactance 0.002;
}

object transformer_configuration:72 {
	connect_type SINGLE_PHASE_CENTER_TAPPED;
	install_type PADMOUNT;
	primary_voltage 7199.6 V;
	secondary_voltage 120 V;
	kVA_rating 100;
	phaseB_rating 100;
	resistance 0.0015;
	reactance 0.001;
}

object transformer_configuration:73 {
	connect_type SINGLE_PHASE_CENTER_TAPPED;
	install_type PADMOUNT;
	primary_voltage 7199.6 V;
	secondary_voltage 120 V;
	kVA_rating 333;
	phaseB_rating 333;
	resistance 0.00045045045045045;
	reactance 0.0003003003003003;
}

object transformer_configuration:74 {
	connect_type SINGLE_PHASE_CENTER_TAPPED;
	install_type PADMOUNT;
	primary_voltage 7199.6 V;
	secondary_voltage 120 V;
	kVA_rating 25;
	phaseB_rating 25;
	resistance 0.006;
	reactance 0.004;
}

object transformer_configuration:75 {
	connect_type SINGLE_PHASE_CENTER_TAPPED;
	install_type PADMOUNT;
	primary_voltage 7199.6 V;
	secondary_voltage 120 V;
	kVA_rating 10;
	phaseB_rating 10;
	resistance 0.015;
	reactance 0.01;
}

object transformer_configuration:76 {
	connect_type SINGLE_PHASE_CENTER_TAPPED;
	install_type PADMOUNT;
	primary_voltage 7199.6 V;
	secondary_voltage 120 V;
	kVA_rating 166.666666666667;
	phaseB_rating 166.666666666667;
	resistance 0.000899999999999998;
	reactance 0.000599999999999999;
}

object transformer_configuration:77 {
	connect_type SINGLE_PHASE_CENTER_TAPPED;
	install_type PADMOUNT;
	primary_voltage 7199.6 V;
	secondary_voltage 120 V;
	kVA_rating 500;
	phaseB_rating 500;
	resistance 0.0003;
	reactance 0.0002;
}

object transformer_configuration:78 {
	connect_type SINGLE_PHASE_CENTER_TAPPED;
	install_type PADMOUNT;
	primary_voltage 7199.6 V;
	secondary_voltage 120 V;
	kVA_rating 250;
	phaseB_rating 250;
	resistance 0.0006;
	reactance 0.0004;
}

object transformer_configuration:79 {
	connect_type SINGLE_PHASE_CENTER_TAPPED;
	install_type POLETOP;
	primary_voltage 7199.6 V;
	secondary_voltage 120 V;
	kVA_rating 15;
	phaseC_rating 15;
	resistance 0.01;
	reactance 0.00666666666666667;
}

object transformer_configuration:80 {
	connect_type SINGLE_PHASE_CENTER_TAPPED;
	install_type POLETOP;
	primary_voltage 7199.6 V;
	secondary_voltage 120 V;
	kVA_rating 25;
	phaseC_rating 25;
	resistance 0.006;
	reactance 0.004;
}

object transformer_configuration:81 {
	connect_type SINGLE_PHASE_CENTER_TAPPED;
	install_type POLETOP;
	primary_voltage 7199.6 V;
	secondary_voltage 120 V;
	kVA_rating 20;
	phaseC_rating 20;
	resistance 0.0075;
	reactance 0.005;
}

object transformer_configuration:82 {
	connect_type SINGLE_PHASE_CENTER_TAPPED;
	install_type POLETOP;
	primary_voltage 7199.6 V;
	secondary_voltage 120 V;
	kVA_rating 5;
	phaseC_rating 5;
	resistance 0.015;
	reactance 0.01;
}

object transformer_configuration:83 {
	connect_type SINGLE_PHASE_CENTER_TAPPED;
	install_type POLETOP;
	primary_voltage 7199.6 V;
	secondary_voltage 120 V;
	kVA_rating 50;
	phaseC_rating 50;
	resistance 0.003;
	reactance 0.002;
}

object transformer_configuration:84 {
	connect_type SINGLE_PHASE_CENTER_TAPPED;
	install_type PADMOUNT;
	primary_voltage 7199.6 V;
	secondary_voltage 120 V;
	kVA_rating 15;
	phaseC_rating 15;
	resistance 0.01;
	reactance 0.00666666666666667;
}

object transformer_configuration:85 {
	connect_type SINGLE_PHASE_CENTER_TAPPED;
	install_type PADMOUNT;
	primary_voltage 7199.6 V;
	secondary_voltage 120 V;
	kVA_rating 50;
	phaseC_rating 50;
	resistance 0.003;
	reactance 0.002;
}

object transformer_configuration:86 {
	connect_type SINGLE_PHASE_CENTER_TAPPED;
	install_type PADMOUNT;
	primary_voltage 7199.6 V;
	secondary_voltage 120 V;
	kVA_rating 25;
	phaseC_rating 25;
	resistance 0.006;
	reactance 0.004;
}

object transformer_configuration:87 {
	connect_type SINGLE_PHASE_CENTER_TAPPED;
	install_type PADMOUNT;
	primary_voltage 7199.6 V;
	secondary_voltage 120 V;
	kVA_rating 100;
	phaseC_rating 100;
	resistance 0.0015;
	reactance 0.001;
}

object transformer_configuration:88 {
	connect_type SINGLE_PHASE_CENTER_TAPPED;
	install_type PADMOUNT;
	primary_voltage 7199.6 V;
	secondary_voltage 120 V;
	kVA_rating 333;
	phaseC_rating 333;
	resistance 0.00045045045045045;
	reactance 0.0003003003003003;
}

object transformer_configuration:89 {
	connect_type SINGLE_PHASE_CENTER_TAPPED;
	install_type PADMOUNT;
	primary_voltage 7199.6 V;
	secondary_voltage 120 V;
	kVA_rating 166.666666666667;
	phaseC_rating 166.666666666667;
	resistance 0.000899999999999998;
	reactance 0.000599999999999999;
}

object transformer_configuration:90 {
	connect_type SINGLE_PHASE_CENTER_TAPPED;
	install_type PADMOUNT;
	primary_voltage 7199.6 V;
	secondary_voltage 120 V;
	kVA_rating 500;
	phaseC_rating 500;
	resistance 0.0003;
	reactance 0.0002;
}

object transformer_configuration:91 {
	connect_type SINGLE_PHASE_CENTER_TAPPED;
	install_type PADMOUNT;
	primary_voltage 7199.6 V;
	secondary_voltage 120 V;
	kVA_rating 250;
	phaseC_rating 250;
	resistance 0.0006;
	reactance 0.0004;
}

object transformer_configuration:113 {
	connect_type WYE_WYE;
	install_type PADMOUNT;
	primary_voltage 12470 V;
	secondary_voltage 480 V;
	kVA_rating 500.000000000001;
	phaseA_rating 166.666666666667;
	phaseB_rating 166.666666666667;
	phaseC_rating 166.666666666667;
	resistance 0.0002;
	reactance 0.000999999999999998;
}

object transformer_configuration:96 {
	connect_type WYE_WYE;
	install_type POLETOP;
	primary_voltage 12470 V;
	secondary_voltage 480 V;
	kVA_rating 25;
	phaseA_rating 0;
	phaseB_rating 25;
	phaseC_rating 0;
	resistance 0.004;
	reactance 0.02;
}

object transformer_configuration:112 {
	connect_type WYE_WYE;
	install_type PADMOUNT;
	primary_voltage 12470 V;
	secondary_voltage 480 V;
	kVA_rating 10;
	phaseA_rating 0;
	phaseB_rating 10;
	phaseC_rating 0;
	resistance 0.01;
	reactance 0.05;
}

object transformer_configuration:99 {
	connect_type WYE_WYE;
	install_type POLETOP;
	primary_voltage 12470 V;
	secondary_voltage 480 V;
	kVA_rating 60;
	phaseA_rating 20;
	phaseB_rating 20;
	phaseC_rating 20;
	resistance 0.00166666666666667;
	reactance 0.00833333333333333;
}

object transformer_configuration:111 {
	connect_type WYE_WYE;
	install_type PADMOUNT;
	primary_voltage 12470 V;
	secondary_voltage 480 V;
	kVA_rating 25;
	phaseA_rating 0;
	phaseB_rating 25;
	phaseC_rating 0;
	resistance 0.004;
	reactance 0.02;
}

object transformer_configuration:101 {
	connect_type WYE_WYE;
	install_type POLETOP;
	primary_voltage 12470 V;
	secondary_voltage 480 V;
	kVA_rating 45;
	phaseA_rating 15;
	phaseB_rating 15;
	phaseC_rating 15;
	resistance 0.00222222222222222;
	reactance 0.0111111111111111;
}

object transformer_configuration:94 {
	connect_type WYE_WYE;
	install_type POLETOP;
	primary_voltage 12470 V;
	secondary_voltage 480 V;
	kVA_rating 50;
	phaseA_rating 25;
	phaseB_rating 0;
	phaseC_rating 25;
	resistance 0.002;
	reactance 0.01;
}

object transformer_configuration:97 {
	connect_type WYE_WYE;
	install_type POLETOP;
	primary_voltage 12470 V;
	secondary_voltage 480 V;
	kVA_rating 10;
	phaseA_rating 0;
	phaseB_rating 10;
	phaseC_rating 0;
	resistance 0.01;
	reactance 0.05;
}

object transformer_configuration:108 {
	connect_type WYE_WYE;
	install_type PADMOUNT;
	primary_voltage 12470 V;
	secondary_voltage 480 V;
	kVA_rating 300;
	phaseA_rating 100;
	phaseB_rating 100;
	phaseC_rating 100;
	resistance 0.000333333333333333;
	reactance 0.00166666666666667;
}

object transformer_configuration:106 {
	connect_type WYE_WYE;
	install_type PADMOUNT;
	primary_voltage 12470 V;
	secondary_voltage 480 V;
	kVA_rating 150;
	phaseA_rating 50;
	phaseB_rating 50;
	phaseC_rating 50;
	resistance 0.000666666666666667;
	reactance 0.00333333333333333;
}

object transformer_configuration:98 {
	connect_type WYE_WYE;
	install_type POLETOP;
	primary_voltage 12470 V;
	secondary_voltage 480 V;
	kVA_rating 75;
	phaseA_rating 25;
	phaseB_rating 25;
	phaseC_rating 25;
	resistance 0.00133333333333333;
	reactance 0.00666666666666667;
}

object transformer_configuration:114 {
	connect_type WYE_WYE;
	install_type PADMOUNT;
	primary_voltage 12470 V;
	secondary_voltage 480 V;
	kVA_rating 1500;
	phaseA_rating 500;
	phaseB_rating 500;
	phaseC_rating 500;
	resistance 6.66666666666667e-005;
	reactance 0.000333333333333333;
}

object transformer_configuration:102 {
	connect_type WYE_WYE;
	install_type POLETOP;
	primary_voltage 12470 V;
	secondary_voltage 480 V;
	kVA_rating 150;
	phaseA_rating 50;
	phaseB_rating 50;
	phaseC_rating 50;
	resistance 0.000666666666666667;
	reactance 0.00333333333333333;
}

object transformer_configuration:110 {
	connect_type WYE_WYE;
	install_type PADMOUNT;
	primary_voltage 12470 V;
	secondary_voltage 480 V;
	kVA_rating 75;
	phaseA_rating 25;
	phaseB_rating 25;
	phaseC_rating 25;
	resistance 0.00133333333333333;
	reactance 0.00666666666666667;
}

object transformer_configuration:105 {
	connect_type WYE_WYE;
	install_type PADMOUNT;
	primary_voltage 12470 V;
	secondary_voltage 480 V;
	kVA_rating 45;
	phaseA_rating 15;
	phaseB_rating 15;
	phaseC_rating 15;
	resistance 0.00222222222222222;
	reactance 0.0111111111111111;
}

object transformer_configuration:107 {
	connect_type WYE_WYE;
	install_type PADMOUNT;
	primary_voltage 12470 V;
	secondary_voltage 480 V;
	kVA_rating 50;
	phaseA_rating 25;
	phaseB_rating 0;
	phaseC_rating 25;
	resistance 0.002;
	reactance 0.01;
}

object transformer_configuration:92 {
	connect_type WYE_WYE;
	install_type POLETOP;
	primary_voltage 12470 V;
	secondary_voltage 480 V;
	kVA_rating 15;
	phaseA_rating 0;
	phaseB_rating 15;
	phaseC_rating 0;
	resistance 0.00666666666666667;
	reactance 0.0333333333333333;
}

object transformer_configuration:109 {
	connect_type WYE_WYE;
	install_type PADMOUNT;
	primary_voltage 12470 V;
	secondary_voltage 480 V;
	kVA_rating 999;
	phaseA_rating 333;
	phaseB_rating 333;
	phaseC_rating 333;
	resistance 0.0001001001001001;
	reactance 0.000500500500500501;
}

object transformer_configuration:100 {
	connect_type WYE_WYE;
	install_type POLETOP;
	primary_voltage 12470 V;
	secondary_voltage 480 V;
	kVA_rating 10;
	phaseA_rating 5;
	phaseB_rating 0;
	phaseC_rating 5;
	resistance 0.01;
	reactance 0.05;
}

object transformer_configuration:95 {
	connect_type WYE_WYE;
	install_type POLETOP;
	primary_voltage 12470 V;
	secondary_voltage 480 V;
	kVA_rating 1;
	phaseA_rating 0;
	phaseB_rating 1;
	phaseC_rating 0;
	resistance 0.01;
	reactance 0.05;
}

object transformer_configuration:93 {
	connect_type WYE_WYE;
	install_type POLETOP;
	primary_voltage 12470 V;
	secondary_voltage 480 V;
	kVA_rating 30;
	phaseA_rating 15;
	phaseB_rating 0;
	phaseC_rating 15;
	resistance 0.00333333333333333;
	reactance 0.0166666666666667;
}

object transformer_configuration:115 {
	connect_type WYE_WYE;
	install_type PADMOUNT;
	primary_voltage 12470 V;
	secondary_voltage 480 V;
	kVA_rating 750;
	phaseA_rating 250;
	phaseB_rating 250;
	phaseC_rating 250;
	resistance 0.000133333333333333;
	reactance 0.000666666666666667;
}

object overhead_line:642 {
	name 188.111736_L;
	phases "B|N";
	from node:515;
	to node:405;
	length 25.9935103054654;
	configuration line_configuration:611;
}

object overhead_line:643 {
	name 188.111737_L;
	phases "B|N";
	from node:515;
	to node:507;
	length 285.281784279698;
	configuration line_configuration:611;
}

object overhead_line:644 {
	name 188.111738_L;
	phases "B|N";
	from node:534;
	to node:515;
	length 937.673893631437;
	configuration line_configuration:611;
}

object overhead_line:645 {
	name 188.135738_L;
	phases "A|B|C|N";
	from node:574;
	to node:471;
	length 38.0637095537992;
	configuration line_configuration:613;
}

object overhead_line:646 {
	name 188.135739_L;
	phases "A|B|C|N";
	from node:471;
	to node:544;
	length 120.922362716798;
	configuration line_configuration:613;
}

object overhead_line:647 {
	name 188.135740_L;
	phases "A|B|C|N";
	from node:471;
	to node:439;
	length 29.8888873829444;
	configuration line_configuration:614;
}

object overhead_line:648 {
	name 188.135741_L;
	phases "A|B|C|N";
	from node:439;
	to node:429;
	length 333.600319629854;
	configuration line_configuration:614;
}

object overhead_line:649 {
	name 188.135742_L;
	phases "A|B|C|N";
	from node:429;
	to node:450;
	length 16.4680728986709;
	configuration line_configuration:614;
}

object overhead_line:650 {
	name 188.17642_L;
	phases "A|N";
	from node:517;
	to node:342;
	length 42.2577927134979;
	configuration line_configuration:616;
}

object overhead_line:651 {
	name 188.17892_L;
	phases "A|N";
	from node:464;
	to node:324;
	length 36.9732674373889;
	configuration line_configuration:616;
}

object overhead_line:652 {
	name 188.179581_L;
	phases "B|N";
	from node:511;
	to node:530;
	length 153.784354682433;
	configuration line_configuration:617;
}

object overhead_line:653 {
	name 188.179582_L;
	phases "B|N";
	from node:488;
	to node:511;
	length 558.40009179096;
	configuration line_configuration:617;
}

object overhead_line:654 {
	name 188.179583_L;
	phases "B|N";
	from node:511;
	to node:335;
	length 20.2575984016017;
	configuration line_configuration:618;
}

object overhead_line:655 {
	name 188.18009_L;
	phases "B|N";
	from node:488;
	to node:401;
	length 37.478735157522;
	configuration line_configuration:617;
}

object overhead_line:656 {
	name 188.18079_L;
	phases "B|N";
	from node:507;
	to node:488;
	length 360.665491841474;
	configuration line_configuration:617;
}

object overhead_line:657 {
	name 188.18084_L;
	phases "A|N";
	from node:544;
	to node:305;
	length 30.4214157625711;
	configuration line_configuration:619;
}

object overhead_line:658 {
	name 188.18245_L;
	phases "A|N";
	from node:489;
	to node:417;
	length 27.535936537739;
	configuration line_configuration:619;
}

object overhead_line:659 {
	name 188.18342_L;
	phases "B|N";
	from node:534;
	to node:411;
	length 39.7149729952331;
	configuration line_configuration:611;
}

object overhead_line:660 {
	name 188.18363_L;
	phases "A|B|C|N";
	from node:473;
	to node:379;
	length 26.0741410020213;
	configuration line_configuration:613;
}

object overhead_line:661 {
	name 188.18418_L;
	phases "B|N";
	from node:424;
	to node:534;
	length 461.911096126731;
	configuration line_configuration:611;
}

object overhead_line:662 {
	name 188.18421_L;
	phases "B|N";
	from node:461;
	to node:424;
	length 20.3368989032308;
	configuration line_configuration:611;
}

object overhead_line:663 {
	name 188.18463_L;
	phases "A|B|N";
	from node:559;
	to node:392;
	length 29.1820850009577;
	configuration line_configuration:621;
}

object overhead_line:664 {
	name 188.18555_L;
	phases "A|B|C|N";
	from node:428;
	to node:509;
	length 12.4997809978856;
	configuration line_configuration:614;
}

object overhead_line:665 {
	name 188.18574_L;
	phases "A|N";
	from node:495;
	to node:332;
	length 46.7785108891823;
	configuration line_configuration:622;
}

object overhead_line:666 {
	name 188.18577_L;
	phases "A|B|N";
	from node:481;
	to node:357;
	length 29.0245592905553;
	configuration line_configuration:621;
}

object overhead_line:667 {
	name 188.18589_L;
	phases "A|B|C|N";
	from node:474;
	to node:428;
	length 166.477662030685;
	configuration line_configuration:614;
}

object overhead_line:668 {
	name 188.18596_L;
	phases "A|N";
	from node:474;
	to node:400;
	length 41.4596893621099;
	configuration line_configuration:616;
}

object overhead_line:669 {
	name 188.18609_L;
	phases "A|B|C|N";
	from node:483;
	to node:474;
	length 130.83212876426;
	configuration line_configuration:614;
}

object overhead_line:670 {
	name 188.18611_L;
	phases "A|B|C|N";
	from node:524;
	to node:327;
	length 30.8219243071654;
	configuration line_configuration:623;
}

object overhead_line:671 {
	name 188.18616_L;
	phases "A|B|C|N";
	from node:483;
	to node:425;
	length 24.1987377563081;
	configuration line_configuration:614;
}

object overhead_line:672 {
	name 188.18618_L;
	phases "A|B|C|N";
	from node:425;
	to node:520;
	length 12.4995828730476;
	configuration line_configuration:614;
}

object overhead_line:673 {
	name 188.18623_L;
	phases "A|B|C|N";
	from node:435;
	to node:483;
	length 81.9435145534088;
	configuration line_configuration:614;
}

object overhead_line:674 {
	name 188.18629_L;
	phases "A|B|C|N";
	from node:523;
	to node:435;
	length 12.7299399059344;
	configuration line_configuration:614;
}

object overhead_line:675 {
	name 188.18641_L;
	phases "A|B|C|N";
	from node:442;
	to node:524;
	length 126.573700605532;
	configuration line_configuration:623;
}

object overhead_line:676 {
	name 188.18642_L;
	phases "A|B|C|N";
	from node:442;
	to node:350;
	length 30.1685677484587;
	configuration line_configuration:623;
}

object overhead_line:677 {
	name 188.18644_L;
	phases "B|N";
	from node:452;
	to node:377;
	length 34.7853050582299;
	configuration line_configuration:624;
}

object overhead_line:678 {
	name 188.18674_L;
	phases "A|B|C|N";
	from node:512;
	to node:442;
	length 171.755886350359;
	configuration line_configuration:623;
}

object overhead_line:679 {
	name 188.18675_L;
	phases "A|B|C|N";
	from node:512;
	to node:326;
	length 30.3988852591676;
	configuration line_configuration:623;
}

object overhead_line:680 {
	name 188.18676_L;
	phases "A|B|C|N";
	from node:453;
	to node:396;
	length 29.5811928258364;
	configuration line_configuration:614;
}

object overhead_line:681 {
	name 188.18714_L;
	phases "A|B|C|N";
	from node:528;
	to node:447;
	length 155.863310275277;
	configuration line_configuration:625;
}

object overhead_line:682 {
	name 188.18721_L;
	phases "A|B|C|N";
	from node:436;
	to node:512;
	length 168.252331862132;
...